data_image0
_cell_length_a       12
_cell_length_b       12
_cell_length_c       15
_cell_angle_alpha    90
_cell_angle_beta     90
_cell_angle_gamma    90

loop_
  _atom_site_label
  _atom_site_occupancy
  _atom_site_fract_x
  _atom_site_fract_y
  _atom_site_fract_z
  _atom_site_thermal_displace_type
  _atom_site_B_iso_or_equiv
  _atom_site_type_symbol
  Zn1      1.0000 0.50000  0.50000  0.33333  Biso   1.000  Zn
  Zn2      1.0000 0.50000  0.50000  0.66667  Biso   1.000  Zn
