# generated using pymatgen
data_H4C4S
_symmetry_space_group_name_H-M   'P 1'
_cell_length_a   25.00000000
_cell_length_b   25.00000000
_cell_length_c   30.00000000
_cell_angle_alpha   90.00000000
_cell_angle_beta   90.00000000
_cell_angle_gamma   90.00000000
_symmetry_Int_Tables_number   1
_chemical_formula_structural   H4C4S
_chemical_formula_sum   'H8 C8 S2'
_cell_volume   18750.00000000
_cell_formula_units_Z   2
loop_
 _symmetry_equiv_pos_site_id
 _symmetry_equiv_pos_as_xyz
  1  'x, y, z'
loop_
 _atom_site_type_symbol
 _atom_site_label
 _atom_site_symmetry_multiplicity
 _atom_site_fract_x
 _atom_site_fract_y
 _atom_site_fract_z
 _atom_site_occupancy
  H  H1  1  0.188023  0.121549  0.000000  1.0
  H  H2  1  0.108311  0.184197  0.000000  1.0
  H  H3  1  0.159815  0.024718  0.000000  1.0
  H  H4  1  0.020891  0.133909  0.000000  1.0
  S  S5  1  0.064651  0.046617  0.000000  1.0
  C  C6  1  0.149087  0.109113  0.000000  1.0
  C  C7  1  0.105431  0.143425  0.000000  1.0
  C  C8  1  0.133339  0.055801  0.000000  1.0
  C  C9  1  0.057348  0.115529  0.000000  1.0
  H  H10  1  0.177251  0.147286  0.166667  1
  H  H11  1  0.080920  0.178893  0.166667  1
  H  H12  1  0.183863  0.046647  0.166667  1
  H  H13  1  0.015971  0.101739  0.166667  1
  C  C14  1  0.144917  0.122283  0.166667  1
  C  C15  1  0.092158  0.139595  0.166667  1
  C  C16  1  0.148352  0.066800  0.166667  1
  C  C17  1  0.056516  0.096936  0.166667  1
  S  S18  1  0.086948  0.034678  0.166667  1
