# generated using pymatgen
data_H4C4S
_symmetry_space_group_name_H-M   'P 1'
_cell_length_a   25.00000000
_cell_length_b   25.00000000
_cell_length_c   30.00000000
_cell_angle_alpha   90.00000000
_cell_angle_beta   90.00000000
_cell_angle_gamma   90.00000000
_symmetry_Int_Tables_number   1
_chemical_formula_structural   H4C4S
_chemical_formula_sum   'H8 C8 S2'
_cell_volume   18750.00000000
_cell_formula_units_Z   2
loop_
 _symmetry_equiv_pos_site_id
 _symmetry_equiv_pos_as_xyz
  1  'x, y, z'
loop_
 _atom_site_type_symbol
 _atom_site_label
 _atom_site_symmetry_multiplicity
 _atom_site_fract_x
 _atom_site_fract_y
 _atom_site_fract_z
 _atom_site_occupancy
  H  H1  1  0.188023  0.121549  0.000000  1.0
  H  H2  1  0.108311  0.184197  0.000000  1.0
  H  H3  1  0.159815  0.024718  0.000000  1.0
  H  H4  1  0.020891  0.133909  0.000000  1.0
  C  C5  1  0.149087  0.109113  0.000000  1.0
  C  C6  1  0.105431  0.143425  0.000000  1.0
  C  C7  1  0.133339  0.055801  0.000000  1.0
  C  C8  1  0.057348  0.115529  0.000000  1.0
  S  S9  1  0.064651  0.046617  0.000000  1.0
  H  H10  1  0.105856  0.184120  0.166667  1
  H  H11  1  0.030318  0.116498  0.166667  1
  H  H12  1  0.196318  0.139526  0.166667  1
  H  H13  1  0.064662  0.021673  0.166667  1
  C  C14  1  0.111342  0.143616  0.166667  1
  C  C15  1  0.069971  0.106581  0.166667  1
  C  C16  1  0.161110  0.118850  0.166667  1
  C  C17  1  0.089093  0.054385  0.166667  1
  S  S18  1  0.158226  0.049610  0.166667  1
